<?xml version="1.0" encoding="UTF-8"?>

<!-- generated on 2025-03-16 11:15:56 by Eclipse SUMO netconvert Version 1.12.0
<configuration xmlns:xsi="http://www.w3.org/2001/XMLSchema-instance" xsi:noNamespaceSchemaLocation="http://sumo.dlr.de/xsd/netconvertConfiguration.xsd">

    <input>
        <osm-files value="map.osm"/>
    </input>

    <output>
        <output-file value="five_gardens.net.xml"/>
    </output>

    <projection>
        <proj.utm value="true"/>
    </projection>

    <report>
        <aggregate-warnings value="5"/>
    </report>

</configuration>
-->

<net version="1.9" junctionCornerDetail="5" limitTurnSpeed="5.50" xmlns:xsi="http://www.w3.org/2001/XMLSchema-instance" xsi:noNamespaceSchemaLocation="http://sumo.dlr.de/xsd/net_file.xsd">

    <location netOffset="-273606.00,-2103921.58" convBoundary="0.00,0.00,1213.13,1016.60" origBoundary="72.827831,18.982265,72.874062,19.038824" projParameter="+proj=utm +zone=43 +ellps=WGS84 +datum=WGS84 +units=m +no_defs"/>

    <type id="highway.bridleway" priority="1" numLanes="1" speed="2.78" allow="pedestrian" oneway="1" width="2.00"/>
    <type id="highway.bus_guideway" priority="1" numLanes="1" speed="27.78" allow="bus" oneway="1"/>
    <type id="highway.cycleway" priority="1" numLanes="1" speed="8.33" allow="bicycle" oneway="0" width="1.00"/>
    <type id="highway.footway" priority="1" numLanes="1" speed="2.78" allow="pedestrian" oneway="1" width="2.00"/>
    <type id="highway.ford" priority="1" numLanes="1" speed="2.78" allow="army" oneway="0"/>
    <type id="highway.living_street" priority="2" numLanes="1" speed="2.78" disallow="tram rail_urban rail rail_electric rail_fast ship" oneway="0"/>
    <type id="highway.motorway" priority="14" numLanes="2" speed="39.44" allow="private emergency authority army vip passenger hov taxi bus coach delivery truck trailer motorcycle evehicle custom1 custom2" oneway="1"/>
    <type id="highway.motorway_link" priority="9" numLanes="1" speed="22.22" allow="private emergency authority army vip passenger hov taxi bus coach delivery truck trailer motorcycle evehicle custom1 custom2" oneway="1"/>
    <type id="highway.path" priority="1" numLanes="1" speed="2.78" allow="pedestrian bicycle" oneway="0" width="2.00"/>
    <type id="highway.pedestrian" priority="1" numLanes="1" speed="2.78" allow="pedestrian" oneway="1" width="2.00"/>
    <type id="highway.primary" priority="12" numLanes="2" speed="27.78" disallow="tram rail_urban rail rail_electric rail_fast ship" oneway="0"/>
    <type id="highway.primary_link" priority="7" numLanes="1" speed="22.22" disallow="tram rail_urban rail rail_electric rail_fast ship" oneway="0"/>
    <type id="highway.raceway" priority="15" numLanes="2" speed="83.33" allow="vip" oneway="0"/>
    <type id="highway.residential" priority="3" numLanes="1" speed="13.89" disallow="tram rail_urban rail rail_electric rail_fast ship" oneway="0"/>
    <type id="highway.secondary" priority="11" numLanes="1" speed="27.78" disallow="tram rail_urban rail rail_electric rail_fast ship" oneway="0"/>
    <type id="highway.secondary_link" priority="6" numLanes="1" speed="22.22" disallow="tram rail_urban rail rail_electric rail_fast ship" oneway="0"/>
    <type id="highway.service" priority="1" numLanes="1" speed="5.56" allow="pedestrian delivery bicycle" oneway="0"/>
    <type id="highway.stairs" priority="1" numLanes="1" speed="1.39" allow="pedestrian" oneway="1" width="2.00"/>
    <type id="highway.step" priority="1" numLanes="1" speed="1.39" allow="pedestrian" oneway="1" width="2.00"/>
    <type id="highway.steps" priority="1" numLanes="1" speed="1.39" allow="pedestrian" oneway="1" width="2.00"/>
    <type id="highway.tertiary" priority="10" numLanes="1" speed="22.22" disallow="tram rail_urban rail rail_electric rail_fast ship" oneway="0"/>
    <type id="highway.tertiary_link" priority="5" numLanes="1" speed="22.22" disallow="tram rail_urban rail rail_electric rail_fast ship" oneway="0"/>
    <type id="highway.track" priority="1" numLanes="1" speed="5.56" allow="pedestrian motorcycle moped bicycle" oneway="0"/>
    <type id="highway.trunk" priority="13" numLanes="2" speed="27.78" disallow="pedestrian bicycle tram rail_urban rail rail_electric rail_fast ship" oneway="0"/>
    <type id="highway.trunk_link" priority="8" numLanes="1" speed="22.22" disallow="pedestrian bicycle tram rail_urban rail rail_electric rail_fast ship" oneway="0"/>
    <type id="highway.unclassified" priority="4" numLanes="1" speed="13.89" disallow="tram rail_urban rail rail_electric rail_fast ship" oneway="0"/>
    <type id="highway.unsurfaced" priority="1" numLanes="1" speed="8.33" disallow="tram rail_urban rail rail_electric rail_fast ship" oneway="0"/>
    <type id="railway.highspeed" priority="21" numLanes="1" speed="69.44" allow="rail_fast" oneway="1"/>
    <type id="railway.light_rail" priority="19" numLanes="1" speed="27.78" allow="rail_urban" oneway="1"/>
    <type id="railway.preserved" priority="16" numLanes="1" speed="27.78" allow="rail" oneway="1"/>
    <type id="railway.rail" priority="20" numLanes="1" speed="44.44" allow="rail" oneway="1"/>
    <type id="railway.subway" priority="18" numLanes="1" speed="27.78" allow="rail_urban" oneway="1"/>
    <type id="railway.tram" priority="17" numLanes="1" speed="13.89" allow="tram" oneway="1"/>

    <edge id=":10277719238_0" function="internal">
        <lane id=":10277719238_0_0" index="0" disallow="tram rail_urban rail rail_electric rail_fast ship" speed="5.74" length="8.58" shape="634.99,304.41 633.36,306.05 632.93,307.73 633.70,309.44 635.69,311.19"/>
    </edge>
    <edge id=":10277719238_1" function="internal">
        <lane id=":10277719238_1_0" index="0" disallow="tram rail_urban rail rail_electric rail_fast ship" speed="13.89" length="16.76" shape="634.99,304.41 621.41,314.22"/>
    </edge>
    <edge id=":10277719238_2" function="internal">
        <lane id=":10277719238_2_0" index="0" disallow="tram rail_urban rail rail_electric rail_fast ship" speed="3.65" length="4.67" shape="634.99,304.41 633.55,304.47 632.76,304.05 632.62,303.17 633.12,301.82"/>
    </edge>
    <edge id=":10277719238_3" function="internal">
        <lane id=":10277719238_3_0" index="0" disallow="tram rail_urban rail rail_electric rail_fast ship" speed="9.26" length="13.11" shape="620.77,301.84 624.11,303.32 627.29,303.81 630.29,303.31 633.12,301.82"/>
    </edge>
    <edge id=":10277719238_4" function="internal">
        <lane id=":10277719238_4_0" index="0" disallow="tram rail_urban rail rail_electric rail_fast ship" speed="27.78" length="17.49" shape="620.77,301.84 635.69,311.19"/>
        <lane id=":10277719238_4_1" index="1" disallow="tram rail_urban rail rail_electric rail_fast ship" speed="27.78" length="17.49" shape="619.17,304.61 633.88,313.84"/>
    </edge>
    <edge id=":10277719238_6" function="internal">
        <lane id=":10277719238_6_0" index="0" disallow="tram rail_urban rail rail_electric rail_fast ship" speed="6.69" length="12.71" shape="619.17,304.61 622.56,307.08 624.06,309.50 623.68,311.89 621.41,314.22"/>
    </edge>
    <edge id=":10277719238_7" function="internal">
        <lane id=":10277719238_7_0" index="0" disallow="tram rail_urban rail rail_electric rail_fast ship" speed="13.89" length="16.76" shape="619.54,311.63 633.12,301.82"/>
    </edge>
    <edge id=":10277719238_8" function="internal">
        <lane id=":10277719238_8_0" index="0" disallow="tram rail_urban rail rail_electric rail_fast ship" speed="9.62" length="15.46" shape="619.54,311.63 622.46,310.30 625.83,310.23 629.63,311.41 633.88,313.84"/>
    </edge>
    <edge id=":10277719238_9" function="internal">
        <lane id=":10277719238_9_0" index="0" disallow="tram rail_urban rail rail_electric rail_fast ship" speed="3.65" length="4.67" shape="619.54,311.63 620.98,311.58 621.77,311.99 621.92,312.87 621.41,314.22"/>
    </edge>
    <edge id=":10277719240_0" function="internal">
        <lane id=":10277719240_0_0" index="0" disallow="tram rail_urban rail rail_electric rail_fast ship" speed="13.89" length="19.22" shape="490.54,239.21 486.23,220.48"/>
    </edge>
    <edge id=":10277719240_1" function="internal">
        <lane id=":10277719240_1_0" index="0" disallow="tram rail_urban rail rail_electric rail_fast ship" speed="6.52" length="14.29" shape="490.54,239.21 490.14,235.04 491.35,232.92 494.17,232.86 498.58,234.86"/>
    </edge>
    <edge id=":10277719240_2" function="internal">
        <lane id=":10277719240_2_0" index="0" disallow="tram rail_urban rail rail_electric rail_fast ship" speed="3.65" length="4.67" shape="490.54,239.21 491.05,237.86 491.74,237.29 492.61,237.50 493.66,238.49"/>
    </edge>
    <edge id=":10277719240_3" function="internal">
        <lane id=":10277719240_3_0" index="0" disallow="tram rail_urban rail rail_electric rail_fast ship" speed="13.07" length="16.86" shape="489.35,219.76 490.63,223.14 492.86,226.33 496.05,229.31 500.19,232.09"/>
    </edge>
    <edge id=":10277719240_4" function="internal">
        <lane id=":10277719240_4_0" index="0" disallow="tram rail_urban rail rail_electric rail_fast ship" speed="13.89" length="19.22" shape="489.35,219.76 493.66,238.49"/>
    </edge>
    <edge id=":10277719240_5" function="internal">
        <lane id=":10277719240_5_0" index="0" disallow="tram rail_urban rail rail_electric rail_fast ship" speed="3.65" length="4.67" shape="489.35,219.76 488.83,221.11 488.14,221.68 487.28,221.47 486.23,220.48"/>
    </edge>
    <edge id=":10277719240_6" function="internal">
        <lane id=":10277719240_6_0" index="0" disallow="tram rail_urban rail rail_electric rail_fast ship" speed="5.00" length="7.77" shape="480.49,220.53 483.35,222.01 485.26,222.49 486.21,221.98 486.23,220.48"/>
    </edge>
    <edge id=":10277719240_7" function="internal">
        <lane id=":10277719240_7_0" index="0" disallow="tram rail_urban rail rail_electric rail_fast ship" speed="27.78" length="22.85" shape="480.49,220.53 500.19,232.09"/>
        <lane id=":10277719240_7_1" index="1" disallow="tram rail_urban rail rail_electric rail_fast ship" speed="27.78" length="22.85" shape="478.86,223.28 498.58,234.86"/>
    </edge>
    <edge id=":10277719240_9" function="internal">
        <lane id=":10277719240_9_0" index="0" disallow="tram rail_urban rail rail_electric rail_fast ship" speed="14.93" length="21.71" shape="478.86,223.28 484.69,227.15 489.10,230.97 492.09,234.75 493.66,238.49"/>
    </edge>
    <edge id=":10277719242_0" function="internal">
        <lane id=":10277719242_0_0" index="0" disallow="tram rail_urban rail rail_electric rail_fast ship" speed="13.89" length="23.81" shape="431.03,200.96 425.15,177.89"/>
    </edge>
    <edge id=":10277719242_1" function="internal">
        <lane id=":10277719242_1_0" index="0" disallow="tram rail_urban rail rail_electric rail_fast ship" speed="6.56" length="2.31" shape="431.03,200.96 430.72,198.67"/>
    </edge>
    <edge id=":10277719242_2" function="internal">
        <lane id=":10277719242_2_0" index="0" disallow="tram rail_urban rail rail_electric rail_fast ship" speed="3.65" length="1.27" shape="431.03,200.96 431.45,199.77"/>
    </edge>
    <edge id=":10277719242_10" function="internal">
        <lane id=":10277719242_10_0" index="0" disallow="tram rail_urban rail rail_electric rail_fast ship" speed="6.56" length="12.95" shape="430.72,198.67 430.40,196.31 431.50,194.09 434.33,194.28 438.88,196.90"/>
    </edge>
    <edge id=":10277719242_11" function="internal">
        <lane id=":10277719242_11_0" index="0" disallow="tram rail_urban rail rail_electric rail_fast ship" speed="3.65" length="3.41" shape="431.45,199.77 431.51,199.60 432.18,199.02 433.06,199.21 434.13,200.17"/>
    </edge>
    <edge id=":10277719242_3" function="internal">
        <lane id=":10277719242_3_0" index="0" disallow="tram rail_urban rail rail_electric rail_fast ship" speed="16.51" length="21.67" shape="428.25,177.10 429.57,181.02 431.89,185.35 435.51,189.85 440.73,194.29"/>
    </edge>
    <edge id=":10277719242_4" function="internal">
        <lane id=":10277719242_4_0" index="0" disallow="tram rail_urban rail rail_electric rail_fast ship" speed="13.89" length="23.81" shape="428.25,177.10 434.13,200.17"/>
    </edge>
    <edge id=":10277719242_5" function="internal">
        <lane id=":10277719242_5_0" index="0" disallow="tram rail_urban rail rail_electric rail_fast ship" speed="3.65" length="4.67" shape="428.25,177.10 427.77,178.46 427.10,179.04 426.22,178.85 425.15,177.89"/>
    </edge>
    <edge id=":10277719242_6" function="internal">
        <lane id=":10277719242_6_0" index="0" disallow="tram rail_urban rail rail_electric rail_fast ship" speed="5.12" length="8.83" shape="420.14,178.98 422.93,180.84 424.69,181.28 425.43,180.30 425.15,177.89"/>
    </edge>
    <edge id=":10277719242_7" function="internal">
        <lane id=":10277719242_7_0" index="0" disallow="tram rail_urban rail rail_electric rail_fast ship" speed="27.78" length="25.73" shape="420.14,178.98 440.73,194.29"/>
        <lane id=":10277719242_7_1" index="1" disallow="tram rail_urban rail rail_electric rail_fast ship" speed="27.78" length="25.73" shape="418.17,181.50 438.88,196.90"/>
    </edge>
    <edge id=":10277719242_9" function="internal">
        <lane id=":10277719242_9_0" index="0" disallow="tram rail_urban rail rail_electric rail_fast ship" speed="18.68" length="9.52" shape="418.17,181.50 423.82,186.33 425.27,187.84"/>
    </edge>
    <edge id=":10277719242_12" function="internal">
        <lane id=":10277719242_12_0" index="0" disallow="tram rail_urban rail rail_electric rail_fast ship" speed="18.68" length="15.32" shape="425.27,187.84 428.64,191.33 432.22,196.08 434.13,200.17"/>
    </edge>
    <edge id=":10277719243_0" function="internal">
        <lane id=":10277719243_0_0" index="0" disallow="tram rail_urban rail rail_electric rail_fast ship" speed="5.57" length="7.72" shape="419.01,172.54 417.68,173.93 417.38,175.43 418.12,177.05 419.90,178.78"/>
    </edge>
    <edge id=":10277719243_1" function="internal">
        <lane id=":10277719243_1_0" index="0" disallow="tram rail_urban rail rail_electric rail_fast ship" speed="13.89" length="14.83" shape="419.01,172.54 406.98,181.21"/>
    </edge>
    <edge id=":10277719243_2" function="internal">
        <lane id=":10277719243_2_0" index="0" disallow="tram rail_urban rail rail_electric rail_fast ship" speed="3.65" length="4.67" shape="419.01,172.54 417.57,172.59 416.78,172.17 416.63,171.29 417.14,169.94"/>
    </edge>
    <edge id=":10277719243_3" function="internal">
        <lane id=":10277719243_3_0" index="0" disallow="tram rail_urban rail rail_electric rail_fast ship" speed="7.75" length="10.65" shape="407.39,168.73 409.99,170.46 412.49,171.23 414.87,171.06 417.14,169.94"/>
    </edge>
    <edge id=":10277719243_4" function="internal">
        <lane id=":10277719243_4_0" index="0" disallow="tram rail_urban rail rail_electric rail_fast ship" speed="27.78" length="16.09" shape="407.39,168.73 419.90,178.78"/>
        <lane id=":10277719243_4_1" index="1" disallow="tram rail_urban rail rail_electric rail_fast ship" speed="27.78" length="16.09" shape="405.35,171.20 417.93,181.31"/>
    </edge>
    <edge id=":10277719243_6" function="internal">
        <lane id=":10277719243_6_0" index="0" disallow="tram rail_urban rail rail_electric rail_fast ship" speed="6.89" length="12.25" shape="405.35,171.20 408.16,174.07 409.37,176.69 408.98,179.07 406.98,181.21"/>
    </edge>
    <edge id=":10277719243_7" function="internal">
        <lane id=":10277719243_7_0" index="0" disallow="tram rail_urban rail rail_electric rail_fast ship" speed="13.89" length="14.83" shape="405.11,178.62 417.14,169.94"/>
    </edge>
    <edge id=":10277719243_8" function="internal">
        <lane id=":10277719243_8_0" index="0" disallow="tram rail_urban rail rail_electric rail_fast ship" speed="8.92" length="14.04" shape="405.11,178.62 407.74,177.47 410.75,177.53 414.15,178.81 417.93,181.31"/>
    </edge>
    <edge id=":10277719243_9" function="internal">
        <lane id=":10277719243_9_0" index="0" disallow="tram rail_urban rail rail_electric rail_fast ship" speed="3.65" length="4.67" shape="405.11,178.62 406.55,178.57 407.34,178.98 407.49,179.86 406.98,181.21"/>
    </edge>
    <edge id=":11235667112_0" function="internal">
        <lane id=":11235667112_0_0" index="0" disallow="tram rail_urban rail rail_electric rail_fast ship" speed="3.65" length="4.67" shape="607.14,1000.55 606.61,1001.89 605.92,1002.46 605.05,1002.24 604.01,1001.24"/>
    </edge>
    <edge id=":12069873596_0" function="internal">
        <lane id=":12069873596_0_0" index="0" disallow="tram rail_urban rail rail_electric rail_fast ship" speed="6.31" length="9.00" shape="412.67,578.12 410.94,579.89 410.26,581.77 410.63,583.74 412.05,585.83"/>
    </edge>
    <edge id=":12069873596_1" function="internal">
        <lane id=":12069873596_1_0" index="0" disallow="tram rail_urban rail rail_electric rail_fast ship" speed="22.22" length="11.83" shape="412.67,578.12 403.01,584.96"/>
    </edge>
    <edge id=":12069873596_2" function="internal">
        <lane id=":12069873596_2_0" index="0" disallow="tram rail_urban rail rail_electric rail_fast ship" speed="3.65" length="1.44" shape="412.67,578.12 411.23,578.21"/>
    </edge>
    <edge id=":12069873596_9" function="internal">
        <lane id=":12069873596_9_0" index="0" disallow="tram rail_urban rail rail_electric rail_fast ship" speed="3.65" length="3.23" shape="411.23,578.21 410.42,577.82 410.26,576.94 410.72,575.58"/>
    </edge>
    <edge id=":12069873596_3" function="internal">
        <lane id=":12069873596_3_0" index="0" disallow="tram rail_urban rail rail_electric rail_fast ship" speed="6.54" length="9.30" shape="402.67,574.58 404.43,576.36 406.36,577.12 408.45,576.86 410.72,575.58"/>
    </edge>
    <edge id=":12069873596_4" function="internal">
        <lane id=":12069873596_4_0" index="0" disallow="tram rail_urban rail rail_electric rail_fast ship" speed="13.89" length="14.65" shape="402.67,574.58 404.91,577.52 407.20,580.33 409.58,583.08 412.05,585.83"/>
    </edge>
    <edge id=":12069873596_5" function="internal">
        <lane id=":12069873596_5_0" index="0" disallow="tram rail_urban rail rail_electric rail_fast ship" speed="7.23" length="11.81" shape="402.67,574.58 404.65,577.92 405.37,580.77 404.82,583.11 403.01,584.96"/>
    </edge>
    <edge id=":12069873596_6" function="internal">
        <lane id=":12069873596_6_0" index="0" disallow="tram rail_urban rail rail_electric rail_fast ship" speed="22.22" length="11.60" shape="401.26,582.28 410.72,575.58"/>
    </edge>
    <edge id=":12069873596_7" function="internal">
        <lane id=":12069873596_7_0" index="0" disallow="tram rail_urban rail rail_electric rail_fast ship" speed="7.99" length="2.63" shape="401.26,582.28 403.71,581.34"/>
    </edge>
    <edge id=":12069873596_8" function="internal">
        <lane id=":12069873596_8_0" index="0" disallow="tram rail_urban rail rail_electric rail_fast ship" speed="3.65" length="1.44" shape="401.26,582.28 402.70,582.29"/>
    </edge>
    <edge id=":12069873596_10" function="internal">
        <lane id=":12069873596_10_0" index="0" disallow="tram rail_urban rail rail_electric rail_fast ship" speed="7.99" length="9.79" shape="403.71,581.34 406.33,581.62 409.11,583.11 412.05,585.83"/>
    </edge>
    <edge id=":12069873596_11" function="internal">
        <lane id=":12069873596_11_0" index="0" disallow="tram rail_urban rail rail_electric rail_fast ship" speed="3.65" length="3.23" shape="402.70,582.29 403.48,582.74 403.58,583.63 403.01,584.96"/>
    </edge>
    <edge id=":12070939303_0" function="internal">
        <lane id=":12070939303_0_0" index="0" allow="pedestrian delivery bicycle" speed="5.56" length="0.27" shape="662.38,418.05 662.26,417.80"/>
    </edge>
    <edge id=":12070939303_1" function="internal">
        <lane id=":12070939303_1_0" index="0" allow="pedestrian delivery bicycle" speed="5.56" length="0.31" shape="665.14,416.40 665.27,416.68"/>
    </edge>
    <edge id=":12127441647_0" function="internal">
        <lane id=":12127441647_0_0" index="0" disallow="tram rail_urban rail rail_electric rail_fast ship" speed="3.65" length="4.67" shape="56.26,528.63 54.82,528.69 54.03,528.27 53.88,527.39 54.38,526.04"/>
    </edge>
    <edge id=":12320187643_0" function="internal">
        <lane id=":12320187643_0_0" index="0" disallow="tram rail_urban rail rail_electric rail_fast ship" speed="7.66" length="9.99" shape="785.41,306.89 787.86,308.39 790.21,309.03 792.47,308.81 794.63,307.74"/>
    </edge>
    <edge id=":12320187643_1" function="internal">
        <lane id=":12320187643_1_0" index="0" disallow="tram rail_urban rail rail_electric rail_fast ship" speed="3.65" length="4.67" shape="785.41,306.89 785.87,308.26 785.70,309.13 784.89,309.52 783.45,309.42"/>
    </edge>
    <edge id=":12320187643_2" function="internal">
        <lane id=":12320187643_2_0" index="0" disallow="tram rail_urban rail rail_electric rail_fast ship" speed="5.78" length="8.49" shape="782.65,316.24 784.58,314.48 785.36,312.76 784.99,311.07 783.45,309.42"/>
    </edge>
    <edge id=":12320187643_3" function="internal">
        <lane id=":12320187643_3_0" index="0" disallow="tram rail_urban rail rail_electric rail_fast ship" speed="27.78" length="14.69" shape="782.65,316.24 794.63,307.74"/>
    </edge>
    <edge id=":12429901322_0" function="internal">
        <lane id=":12429901322_0_0" index="0" disallow="tram rail_urban rail rail_electric rail_fast ship" speed="3.65" length="4.67" shape="554.79,682.70 553.45,682.16 552.89,681.46 553.12,680.60 554.13,679.57"/>
    </edge>
    <edge id=":1280220822_0" function="internal">
        <lane id=":1280220822_0_0" index="0" disallow="tram rail_urban rail rail_electric rail_fast ship" speed="13.89" length="11.28" shape="518.76,621.61 516.25,610.62"/>
    </edge>
    <edge id=":1280220822_1" function="internal">
        <lane id=":1280220822_1_0" index="0" disallow="tram rail_urban rail rail_electric rail_fast ship" speed="7.63" length="2.40" shape="518.76,621.61 518.79,619.21"/>
    </edge>
    <edge id=":1280220822_2" function="internal">
        <lane id=":1280220822_2_0" index="0" disallow="tram rail_urban rail rail_electric rail_fast ship" speed="3.65" length="1.44" shape="518.76,621.61 519.28,620.26"/>
    </edge>
    <edge id=":1280220822_9" function="internal">
        <lane id=":1280220822_9_0" index="0" disallow="tram rail_urban rail rail_electric rail_fast ship" speed="7.63" length="9.48" shape="518.79,619.21 520.03,617.09 522.47,615.26 526.13,613.70"/>
    </edge>
    <edge id=":1280220822_10" function="internal">
        <lane id=":1280220822_10_0" index="0" disallow="tram rail_urban rail rail_electric rail_fast ship" speed="3.65" length="3.23" shape="519.28,620.26 519.97,619.70 520.84,619.91 521.88,620.90"/>
    </edge>
    <edge id=":1280220822_3" function="internal">
        <lane id=":1280220822_3_0" index="0" disallow="tram rail_urban rail rail_electric rail_fast ship" speed="6.31" length="9.04" shape="519.37,609.90 520.28,612.25 521.70,613.66 523.65,614.15 526.13,613.70"/>
    </edge>
    <edge id=":1280220822_4" function="internal">
        <lane id=":1280220822_4_0" index="0" disallow="tram rail_urban rail rail_electric rail_fast ship" speed="13.89" length="11.28" shape="519.37,609.90 521.88,620.90"/>
    </edge>
    <edge id=":1280220822_5" function="internal">
        <lane id=":1280220822_5_0" index="0" disallow="tram rail_urban rail rail_electric rail_fast ship" speed="3.65" length="1.44" shape="519.37,609.90 518.86,611.25"/>
    </edge>
    <edge id=":1280220822_11" function="internal">
        <lane id=":1280220822_11_0" index="0" disallow="tram rail_urban rail rail_electric rail_fast ship" speed="3.65" length="3.23" shape="518.86,611.25 518.17,611.82 517.30,611.61 516.25,610.62"/>
    </edge>
    <edge id=":1280220822_6" function="internal">
        <lane id=":1280220822_6_0" index="0" disallow="tram rail_urban rail rail_electric rail_fast ship" speed="6.37" length="9.09" shape="511.88,617.12 514.28,616.39 515.81,615.06 516.47,613.14 516.25,610.62"/>
    </edge>
    <edge id=":1280220822_7" function="internal">
        <lane id=":1280220822_7_0" index="0" disallow="tram rail_urban rail rail_electric rail_fast ship" speed="13.89" length="14.66" shape="511.88,617.12 515.53,616.49 519.08,615.72 522.59,614.80 526.13,613.70"/>
    </edge>
    <edge id=":1280220822_8" function="internal">
        <lane id=":1280220822_8_0" index="0" disallow="tram rail_urban rail rail_electric rail_fast ship" speed="7.55" length="11.81" shape="511.88,617.12 515.82,616.85 518.80,617.40 520.82,618.75 521.88,620.90"/>
    </edge>
    <edge id=":1307553678_0" function="internal">
        <lane id=":1307553678_0_0" index="0" disallow="tram rail_urban rail rail_electric rail_fast ship" speed="13.89" length="16.43" shape="603.15,506.15 602.87,502.19 602.47,497.96 601.92,493.76 601.20,489.85"/>
    </edge>
    <edge id=":1307553678_1" function="internal">
        <lane id=":1307553678_1_0" index="0" disallow="tram rail_urban rail rail_electric rail_fast ship" speed="6.25" length="14.74" shape="603.15,506.15 603.24,500.92 604.32,498.66 606.40,499.38 609.46,503.08"/>
    </edge>
    <edge id=":1307553678_2" function="internal">
        <lane id=":1307553678_2_0" index="0" disallow="tram rail_urban rail rail_electric rail_fast ship" speed="13.89" length="16.14" shape="606.83,504.89 604.91,501.49 603.36,497.66 602.14,493.68 601.20,489.85"/>
    </edge>
    <edge id=":1307553678_3" function="internal">
        <lane id=":1307553678_3_0" index="0" disallow="tram rail_urban rail rail_electric rail_fast ship" speed="3.65" length="1.44" shape="606.83,504.89 606.81,503.45"/>
    </edge>
    <edge id=":1307553678_4" function="internal">
        <lane id=":1307553678_4_0" index="0" disallow="tram rail_urban rail rail_electric rail_fast ship" speed="3.65" length="3.23" shape="606.81,503.45 607.24,502.66 608.13,502.54 609.46,503.08"/>
    </edge>
    <edge id=":1307751392_0" function="internal">
        <lane id=":1307751392_0_0" index="0" disallow="tram rail_urban rail rail_electric rail_fast ship" speed="13.89" length="15.16" shape="874.31,699.98 873.53,696.29 872.88,692.54 872.38,688.77 872.03,685.01"/>
    </edge>
    <edge id=":1307751392_1" function="internal">
        <lane id=":1307751392_1_0" index="0" disallow="tram rail_urban rail rail_electric rail_fast ship" speed="7.77" length="4.36" shape="874.31,699.98 873.97,695.87 874.04,695.65"/>
    </edge>
    <edge id=":1307751392_2" function="internal">
        <lane id=":1307751392_2_0" index="0" disallow="tram rail_urban rail rail_electric rail_fast ship" speed="3.65" length="1.44" shape="874.31,699.98 874.82,698.64"/>
    </edge>
    <edge id=":1307751392_9" function="internal">
        <lane id=":1307751392_9_0" index="0" disallow="tram rail_urban rail rail_electric rail_fast ship" speed="7.77" length="10.40" shape="874.04,695.65 875.07,692.82 877.64,690.82 881.66,689.88"/>
    </edge>
    <edge id=":1307751392_10" function="internal">
        <lane id=":1307751392_10_0" index="0" disallow="tram rail_urban rail rail_electric rail_fast ship" speed="3.65" length="3.23" shape="874.82,698.64 875.51,698.06 876.38,698.27 877.43,699.26"/>
    </edge>
    <edge id=":1307751392_3" function="internal">
        <lane id=":1307751392_3_0" index="0" disallow="tram rail_urban rail rail_electric rail_fast ship" speed="6.22" length="9.05" shape="881.93,693.07 879.47,693.64 877.90,694.87 877.22,696.74 877.43,699.26"/>
    </edge>
    <edge id=":1307751392_4" function="internal">
        <lane id=":1307751392_4_0" index="0" disallow="tram rail_urban rail rail_electric rail_fast ship" speed="8.06" length="14.61" shape="881.93,693.07 877.84,692.86 874.82,691.45 872.89,688.84 872.03,685.01"/>
    </edge>
    <edge id=":1307751392_5" function="internal">
        <lane id=":1307751392_5_0" index="0" disallow="tram rail_urban rail rail_electric rail_fast ship" speed="3.65" length="4.67" shape="881.93,693.07 880.67,692.37 880.20,691.61 880.53,690.78 881.66,689.88"/>
    </edge>
    <edge id=":1307751392_6" function="internal">
        <lane id=":1307751392_6_0" index="0" disallow="tram rail_urban rail rail_electric rail_fast ship" speed="6.58" length="9.38" shape="875.23,684.79 875.78,687.21 877.03,688.87 878.99,689.75 881.66,689.88"/>
    </edge>
    <edge id=":1307751392_7" function="internal">
        <lane id=":1307751392_7_0" index="0" disallow="tram rail_urban rail rail_electric rail_fast ship" speed="13.89" length="14.66" shape="875.23,684.79 875.56,688.47 876.04,692.07 876.66,695.65 877.43,699.26"/>
    </edge>
    <edge id=":1307751392_8" function="internal">
        <lane id=":1307751392_8_0" index="0" disallow="tram rail_urban rail rail_electric rail_fast ship" speed="3.65" length="1.44" shape="875.23,684.79 874.51,686.04"/>
    </edge>
    <edge id=":1307751392_11" function="internal">
        <lane id=":1307751392_11_0" index="0" disallow="tram rail_urban rail rail_electric rail_fast ship" speed="3.65" length="3.23" shape="874.51,686.04 873.74,686.49 872.92,686.15 872.03,685.01"/>
    </edge>
    <edge id=":1333240948_0" function="internal">
        <lane id=":1333240948_0_0" index="0" disallow="tram rail_urban rail rail_electric rail_fast ship" speed="22.22" length="9.54" shape="765.22,485.90 763.62,476.49"/>
    </edge>
    <edge id=":1333240948_1" function="internal">
        <lane id=":1333240948_1_0" index="0" disallow="tram rail_urban rail rail_electric rail_fast ship" speed="6.27" length="8.01" shape="765.22,485.90 764.86,483.18 765.09,481.11 765.88,479.70 767.25,478.94"/>
    </edge>
    <edge id=":1333240948_2" function="internal">
        <lane id=":1333240948_2_0" index="0" disallow="tram rail_urban rail rail_electric rail_fast ship" speed="5.97" length="8.11" shape="768.05,482.04 766.44,482.04 765.16,481.12 764.22,479.27 763.62,476.49"/>
    </edge>