<?xml version="1.0" encoding="UTF-8"?>

<!-- generated on 2025-03-16 11:03:45 by Eclipse SUMO netedit Version 1.12.0
<configuration xmlns:xsi="http://www.w3.org/2001/XMLSchema-instance" xsi:noNamespaceSchemaLocation="http://sumo.dlr.de/xsd/netconvertConfiguration.xsd">

    <input>
        <sumo-net-file value="intersection.net.xml"/>
    </input>

    <output>
        <output-file value="intersection.net.xml"/>
    </output>

    <processing>
        <geometry.min-radius.fix.railways value="false"/>
        <geometry.max-grade.fix value="false"/>
        <offset.disable-normalization value="true"/>
        <lefthand value="false"/>
    </processing>

    <junctions>
        <no-turnarounds value="true"/>
        <junctions.corner-detail value="5"/>
        <junctions.limit-turn-speed value="5.5"/>
        <rectangular-lane-cut value="false"/>
    </junctions>

    <pedestrian>
        <walkingareas value="false"/>
    </pedestrian>

    <report>
        <aggregate-warnings value="5"/>
    </report>

</configuration>
-->

<net version="1.9" junctionCornerDetail="5" limitTurnSpeed="5.50" xmlns:xsi="http://www.w3.org/2001/XMLSchema-instance" xsi:noNamespaceSchemaLocation="http://sumo.dlr.de/xsd/net_file.xsd">

    <location netOffset="0.00,0.00" convBoundary="-700.00,200.00,100.00,600.00" origBoundary="-10000000000.00,-10000000000.00,10000000000.00,10000000000.00" projParameter="!"/>

    <edge id=":J10_0" function="internal">
        <lane id=":J10_0_0" index="0" speed="6.10" length="9.74" shape="-198.40,595.56 -198.79,598.34 -199.98,600.03 -201.95,600.62 -204.72,600.11"/>
    </edge>
    <edge id=":J10_1" function="internal">
        <lane id=":J10_1_0" index="0" speed="3.92" length="3.25" shape="-203.71,597.08 -202.78,597.25 -202.13,597.05 -201.73,596.49 -201.60,595.56"/>
    </edge>
    <edge id=":J3_0" function="internal">
        <lane id=":J3_0_0" index="0" speed="6.51" length="9.03" shape="-201.60,407.20 -201.95,404.75 -203.00,403.00 -204.75,401.95 -207.20,401.60"/>
    </edge>
    <edge id=":J3_1" function="internal">
        <lane id=":J3_1_0" index="0" speed="13.89" length="14.40" shape="-201.60,407.20 -201.60,392.80"/>
    </edge>
    <edge id=":J3_2" function="internal">
        <lane id=":J3_2_0" index="0" speed="8.00" length="4.07" shape="-201.60,407.20 -201.05,403.35 -200.96,403.20"/>
    </edge>
    <edge id=":J3_12" function="internal">
        <lane id=":J3_12_0" index="0" speed="8.00" length="10.13" shape="-200.96,403.20 -199.40,400.60 -196.65,398.95 -192.80,398.40"/>
    </edge>
    <edge id=":J3_3" function="internal">
        <lane id=":J3_3_0" index="0" speed="6.51" length="9.03" shape="-192.80,401.60 -195.25,401.95 -197.00,403.00 -198.05,404.75 -198.40,407.20"/>
    </edge>
    <edge id=":J3_4" function="internal">
        <lane id=":J3_4_0" index="0" speed="13.89" length="14.40" shape="-192.80,401.60 -207.20,401.60"/>
    </edge>
    <edge id=":J3_5" function="internal">
        <lane id=":J3_5_0" index="0" speed="8.00" length="4.07" shape="-192.80,401.60 -196.65,401.05 -196.80,400.96"/>
    </edge>
    <edge id=":J3_13" function="internal">
        <lane id=":J3_13_0" index="0" speed="8.00" length="10.13" shape="-196.80,400.96 -199.40,399.40 -201.05,396.65 -201.60,392.80"/>
    </edge>
    <edge id=":J3_6" function="internal">
        <lane id=":J3_6_0" index="0" speed="6.51" length="9.03" shape="-198.40,392.80 -198.05,395.25 -197.00,397.00 -195.25,398.05 -192.80,398.40"/>
    </edge>
    <edge id=":J3_7" function="internal">
        <lane id=":J3_7_0" index="0" speed="13.89" length="14.40" shape="-198.40,392.80 -198.40,407.20"/>
    </edge>
    <edge id=":J3_8" function="internal">
        <lane id=":J3_8_0" index="0" speed="8.00" length="4.07" shape="-198.40,392.80 -198.95,396.65 -199.04,396.80"/>
    </edge>
    <edge id=":J3_14" function="internal">
        <lane id=":J3_14_0" index="0" speed="8.00" length="10.13" shape="-199.04,396.80 -200.60,399.40 -203.35,401.05 -207.20,401.60"/>
    </edge>
    <edge id=":J3_9" function="internal">
        <lane id=":J3_9_0" index="0" speed="6.51" length="9.03" shape="-207.20,398.40 -204.75,398.05 -203.00,397.00 -201.95,395.25 -201.60,392.80"/>
    </edge>
    <edge id=":J3_10" function="internal">
        <lane id=":J3_10_0" index="0" speed="13.89" length="14.40" shape="-207.20,398.40 -192.80,398.40"/>
    </edge>
    <edge id=":J3_11" function="internal">
        <lane id=":J3_11_0" index="0" speed="8.00" length="4.07" shape="-207.20,398.40 -203.35,398.95 -203.20,399.04"/>
    </edge>
    <edge id=":J3_15" function="internal">
        <lane id=":J3_15_0" index="0" speed="8.00" length="10.13" shape="-203.20,399.04 -200.60,400.60 -198.95,403.35 -198.40,407.20"/>
    </edge>
    <edge id=":J5_0" function="internal">
        <lane id=":J5_0_0" index="0" speed="3.95" length="3.61" shape="-201.60,205.18 -201.74,204.12 -202.18,203.53 -202.90,203.40 -203.92,203.75"/>
    </edge>
    <edge id=":J5_1" function="internal">
        <lane id=":J5_1_0" index="0" speed="6.16" length="10.83" shape="-205.35,200.88 -202.31,199.85 -200.14,200.22 -198.83,202.00 -198.40,205.18"/>
    </edge>
    <edge id=":J6_0" function="internal">
        <lane id=":J6_0_0" index="0" speed="6.51" length="9.03" shape="-501.60,407.20 -501.95,404.75 -503.00,403.00 -504.75,401.95 -507.20,401.60"/>
    </edge>
    <edge id=":J6_1" function="internal">
        <lane id=":J6_1_0" index="0" speed="13.89" length="19.24" shape="-501.60,407.20 -501.05,403.21 -499.41,399.11 -496.67,394.90 -492.84,390.58"/>
    </edge>
    <edge id=":J6_2" function="internal">
        <lane id=":J6_2_0" index="0" speed="8.71" length="4.59" shape="-501.60,407.20 -500.27,403.97 -499.43,403.26"/>
    </edge>
    <edge id=":J6_12" function="internal">
        <lane id=":J6_12_0" index="0" speed="8.71" length="12.43" shape="-499.43,403.26 -496.93,401.15 -492.60,399.16 -488.27,398.40"/>
    </edge>
    <edge id=":J6_3" function="internal">
        <lane id=":J6_3_0" index="0" speed="7.65" length="12.89" shape="-488.27,401.60 -492.70,401.95 -495.87,403.00 -497.77,404.75 -498.40,407.20"/>
    </edge>
    <edge id=":J6_4" function="internal">
        <lane id=":J6_4_0" index="0" speed="13.89" length="18.93" shape="-488.27,401.60 -507.20,401.60"/>
    </edge>
    <edge id=":J6_5" function="internal">
        <lane id=":J6_5_0" index="0" speed="7.42" length="6.00" shape="-488.27,401.60 -494.24,400.93"/>
    </edge>
    <edge id=":J6_13" function="internal">
        <lane id=":J6_13_0" index="0" speed="7.42" length="13.30" shape="-494.24,400.93 -494.41,400.91 -497.21,398.84 -496.69,395.40 -492.84,390.58"/>
    </edge>
    <edge id=":J6_6" function="internal">
        <lane id=":J6_6_0" index="0" speed="5.47" length="9.74" shape="-490.58,392.84 -492.52,395.27 -492.78,397.01 -491.37,398.05 -488.27,398.40"/>
    </edge>
    <edge id=":J6_7" function="internal">
        <lane id=":J6_7_0" index="0" speed="13.42" length="16.74" shape="-490.58,392.84 -494.00,396.67 -496.44,400.34 -497.91,403.85 -498.40,407.20"/>
    </edge>
    <edge id=":J6_8" function="internal">
        <lane id=":J6_8_0" index="0" speed="13.89" length="5.71" shape="-490.58,392.84 -494.47,396.06 -495.04,396.40"/>
    </edge>
    <edge id=":J6_14" function="internal">
        <lane id=":J6_14_0" index="0" speed="13.89" length="13.35" shape="-495.04,396.40 -499.06,398.86 -503.56,400.85 -507.20,401.60"/>
    </edge>
    <edge id=":J6_9" function="internal">
        <lane id=":J6_9_0" index="0" speed="13.42" length="16.74" shape="-507.20,398.40 -503.85,397.91 -500.34,396.44 -496.67,394.00 -492.84,390.58"/>
    </edge>
    <edge id=":J6_10" function="internal">
        <lane id=":J6_10_0" index="0" speed="13.89" length="18.93" shape="-507.20,398.40 -488.27,398.40"/>
    </edge>
    <edge id=":J6_11" function="internal">
        <lane id=":J6_11_0" index="0" speed="8.00" length="4.07" shape="-507.20,398.40 -503.35,398.95 -503.20,399.04"/>
    </edge>
    <edge id=":J6_15" function="internal">
        <lane id=":J6_15_0" index="0" speed="8.00" length="10.13" shape="-503.20,399.04 -500.60,400.60 -498.95,403.35 -498.40,407.20"/>
    </edge>
    <edge id=":J7_0" function="internal">
        <lane id=":J7_0_0" index="0" speed="13.89" length="0.52" shape="-398.82,301.20 -398.96,301.27 -399.05,301.32 -399.13,301.39 -399.24,301.50"/>
    </edge>
    <edge id=":J7_1" function="internal">
        <lane id=":J7_1_0" index="0" speed="12.11" length="1.55" shape="-401.50,299.24 -401.17,298.91 -400.93,298.71 -400.66,298.55 -400.25,298.34"/>
    </edge>
    <edge id=":J9_0" function="internal">
        <lane id=":J9_0_0" index="0" speed="6.17" length="6.04" shape="-498.32,502.25 -499.75,501.55 -500.78,500.56 -501.39,499.28 -501.60,497.69"/>
    </edge>
    <edge id=":J9_1" function="internal">
        <lane id=":J9_1_0" index="0" speed="3.95" length="2.01" shape="-498.40,497.69 -498.33,498.22 -498.13,498.65 -497.78,498.98 -497.31,499.21"/>
    </edge>

    <edge id="-E0" from="J10" to="J9" priority="-1">
        <lane id="-E0_0" index="0" speed="13.89" length="309.48" shape="-204.72,600.11 -498.32,502.25"/>
    </edge>
    <edge id="-E1" from="J5" to="J7" priority="-1">
        <lane id="-E1_0" index="0" speed="13.89" length="217.91" shape="-203.92,203.75 -398.82,301.20"/>
    </edge>
    <edge id="-E3" from="J4" to="J3" priority="-1">
        <lane id="-E3_0" index="0" speed="13.89" length="292.80" shape="100.00,401.60 -192.80,401.60"/>
    </edge>
    <edge id="-E4" from="J5" to="J3" priority="-1">
        <lane id="-E4_0" index="0" speed="13.89" length="187.62" shape="-198.40,205.18 -198.40,392.80"/>
    </edge>
    <edge id="-E5" from="J6" to="J3" priority="-1">
        <lane id="-E5_0" index="0" speed="13.89" length="281.07" shape="-488.27,398.40 -207.20,398.40"/>
    </edge>
    <edge id="-E6" from="J7" to="J6" priority="-1">
        <lane id="-E6_0" index="0" speed="13.89" length="129.18" shape="-399.24,301.50 -490.58,392.84"/>
    </edge>
    <edge id="-E7" from="J8" to="J6" priority="-1">
        <lane id="-E7_0" index="0" speed="13.89" length="192.80" shape="-700.00,398.40 -507.20,398.40"/>
    </edge>
    <edge id="-E8" from="J9" to="J6" priority="-1">
        <lane id="-E8_0" index="0" speed="13.89" length="90.49" shape="-501.60,497.69 -501.60,407.20"/>
    </edge>
    <edge id="-E9" from="J10" to="J3" priority="-1">
        <lane id="-E9_0" index="0" speed="13.89" length="188.36" shape="-201.60,595.56 -201.60,407.20"/>
    </edge>
    <edge id="E0" from="J9" to="J10" priority="-1">
        <lane id="E0_0" index="0" speed="13.89" length="309.48" shape="-497.31,499.21 -203.71,597.08"/>
    </edge>
    <edge id="E1" from="J7" to="J5" priority="-1">
        <lane id="E1_0" index="0" speed="13.89" length="217.91" shape="-400.25,298.34 -205.35,200.88"/>
    </edge>
    <edge id="E3" from="J3" to="J4" priority="-1">
        <lane id="E3_0" index="0" speed="13.89" length="292.80" shape="-192.80,398.40 100.00,398.40"/>
    </edge>
    <edge id="E4" from="J3" to="J5" priority="-1">
        <lane id="E4_0" index="0" speed="13.89" length="187.62" shape="-201.60,392.80 -201.60,205.18"/>
    </edge>
    <edge id="E5" from="J3" to="J6" priority="-1">
        <lane id="E5_0" index="0" speed="13.89" length="281.07" shape="-207.20,401.60 -488.27,401.60"/>
    </edge>
    <edge id="E6" from="J6" to="J7" priority="-1">
        <lane id="E6_0" index="0" speed="13.89" length="129.18" shape="-492.84,390.58 -401.50,299.24"/>
    </edge>
    <edge id="E7" from="J6" to="J8" priority="-1">
        <lane id="E7_0" index="0" speed="13.89" length="192.80" shape="-507.20,401.60 -700.00,401.60"/>
    </edge>
    <edge id="E8" from="J6" to="J9" priority="-1">
        <lane id="E8_0" index="0" speed="13.89" length="90.49" shape="-498.40,407.20 -498.40,497.69"/>
    </edge>
    <edge id="E9" from="J3" to="J10" priority="-1">
        <lane id="E9_0" index="0" speed="13.89" length="188.36" shape="-198.40,407.20 -198.40,595.56"/>
    </edge>

    <tlLogic id="J3" type="static" programID="0" offset="0">
        <phase duration="42" state="GGgrrrGGgrrr"/>
        <phase duration="3"  state="yyyrrryyyrrr"/>
        <phase duration="42" state="rrrGGgrrrGGg"/>
        <phase duration="3"  state="rrryyyrrryyy"/>
    </tlLogic>
    <tlLogic id="J6" type="static" programID="0" offset="0">
        <phase duration="42" state="rrrGGgrrrGGg"/>
        <phase duration="3"  state="rrryyyrrryyy"/>
        <phase duration="42" state="GGgrrrGGgrrr"/>
        <phase duration="3"  state="yyyrrryyyrrr"/>
    </tlLogic>

    <junction id="J10" type="priority" x="-200.00" y="600.00" incLanes="E9_0 E0_0" intLanes=":J10_0_0 :J10_1_0" shape="-196.80,595.56 -203.20,595.56 -205.22,601.63 -202.65,602.24 -200.54,602.21 -198.91,601.52 -197.74,600.18 -197.03,598.20">
        <request index="0" response="00" foes="00" cont="0"/>
        <request index="1" response="00" foes="00" cont="0"/>
    </junction>
    <junction id="J3" type="traffic_light" x="-200.00" y="400.00" incLanes="-E9_0 -E3_0 -E4_0 -E5_0" intLanes=":J3_0_0 :J3_1_0 :J3_12_0 :J3_3_0 :J3_4_0 :J3_13_0 :J3_6_0 :J3_7_0 :J3_14_0 :J3_9_0 :J3_10_0 :J3_15_0" shape="-203.20,407.20 -196.80,407.20 -196.36,404.98 -195.80,404.20 -195.02,403.64 -194.02,403.31 -192.80,403.20 -192.80,396.80 -195.02,396.36 -195.80,395.80 -196.36,395.02 -196.69,394.02 -196.80,392.80 -203.20,392.80 -203.64,395.02 -204.20,395.80 -204.98,396.36 -205.98,396.69 -207.20,396.80 -207.20,403.20 -204.98,403.64 -204.20,404.20 -203.64,404.98 -203.31,405.98">
        <request index="0"  response="000000000000" foes="000100010000" cont="0"/>
        <request index="1"  response="100000100000" foes="111100110000" cont="0"/>
        <request index="2"  response="100011100000" foes="110111110000" cont="1"/>
        <request index="3"  response="000010000000" foes="100010000000" cont="0"/>
        <request index="4"  response="000110000111" foes="100110000111" cont="0"/>
        <request index="5"  response="111110000110" foes="111110000110" cont="1"/>
        <request index="6"  response="000000000000" foes="010000000100" cont="0"/>
        <request index="7"  response="100000100000" foes="110000111100" cont="0"/>
        <request index="8"  response="100000100111" foes="110000110111" cont="1"/>
        <request index="9"  response="000000000010" foes="000000100010" cont="0"/>
        <request index="10" response="000111000110" foes="000111100110" cont="0"/>
        <request index="11" response="000110011110" foes="000110111110" cont="1"/>
    </junction>
    <junction id="J4" type="dead_end" x="100.00" y="400.00" incLanes="E3_0" intLanes="" shape="100.00,400.00 100.00,396.80 100.00,400.00"/>
    <junction id="J5" type="priority" x="-200.00" y="200.00" incLanes="E4_0 E1_0" intLanes=":J5_0_0 :J5_1_0" shape="-203.20,205.18 -196.80,205.18 -197.06,202.14 -197.83,199.94 -199.12,198.57 -200.92,198.03 -203.23,198.33 -206.06,199.45">
        <request index="0" response="00" foes="00" cont="0"/>
        <request index="1" response="00" foes="00" cont="0"/>
    </junction>
    <junction id="J6" type="traffic_light" x="-500.00" y="400.00" incLanes="-E8_0 E5_0 -E6_0 -E7_0" intLanes=":J6_0_0 :J6_1_0 :J6_12_0 :J6_3_0 :J6_4_0 :J6_13_0 :J6_6_0 :J6_7_0 :J6_14_0 :J6_9_0 :J6_10_0 :J6_15_0" shape="-503.20,407.20 -496.80,407.20 -495.85,404.98 -494.67,404.20 -493.01,403.64 -490.88,403.31 -488.27,403.20 -488.27,396.80 -490.18,396.49 -490.57,396.09 -490.57,395.54 -490.20,394.84 -489.45,393.97 -493.97,389.45 -496.38,391.69 -498.71,393.53 -500.96,394.96 -503.12,395.98 -505.20,396.60 -507.20,396.80 -507.20,403.20 -504.98,403.64 -504.20,404.20 -503.64,404.98 -503.31,405.98">
        <request index="0"  response="000000010000" foes="000100010000" cont="0"/>
        <request index="1"  response="111000110000" foes="111100110000" cont="0"/>
        <request index="2"  response="110011110000" foes="110011110000" cont="1"/>
        <request index="3"  response="000000000000" foes="100010000000" cont="0"/>
        <request index="4"  response="000100000100" foes="100110000111" cont="0"/>
        <request index="5"  response="011100000100" foes="011110000110" cont="1"/>
        <request index="6"  response="010000000000" foes="010000000100" cont="0"/>
        <request index="7"  response="110000111000" foes="110000111100" cont="0"/>
        <request index="8"  response="110000110011" foes="110000110011" cont="1"/>
        <request index="9"  response="000000000000" foes="000000100010" cont="0"/>
        <request index="10" response="000100000100" foes="000111100110" cont="0"/>
        <request index="11" response="000100011100" foes="000110011110" cont="1"/>
    </junction>
    <junction id="J7" type="priority" x="-400.00" y="300.00" incLanes="-E1_0 E6_0" intLanes=":J7_0_0 :J7_1_0" shape="-398.10,302.63 -400.97,296.91 -401.64,297.26 -401.87,297.41 -402.08,297.57 -402.32,297.80 -402.63,298.10">
        <request index="0" response="00" foes="00" cont="0"/>
        <request index="1" response="00" foes="00" cont="0"/>
    </junction>
    <junction id="J8" type="dead_end" x="-700.00" y="400.00" incLanes="E7_0" intLanes="" shape="-700.00,400.00 -700.00,403.20 -700.00,400.00"/>
    <junction id="J9" type="priority" x="-500.00" y="500.00" incLanes="-E0_0 E8_0" intLanes=":J9_0_0 :J9_1_0" shape="-498.82,503.77 -496.80,497.69 -503.20,497.69 -502.71,500.42 -502.11,501.52 -501.26,502.44 -500.16,503.19">
        <request index="0" response="00" foes="00" cont="0"/>
        <request index="1" response="00" foes="00" cont="0"/>
    </junction>

    <junction id=":J3_12_0" type="internal" x="-200.96" y="403.20" incLanes=":J3_2_0 -E4_0" intLanes=":J3_4_0 :J3_5_0 :J3_6_0 :J3_7_0 :J3_10_0 :J3_11_0"/>
    <junction id=":J3_13_0" type="internal" x="-196.80" y="400.96" incLanes=":J3_5_0 -E5_0" intLanes=":J3_1_0 :J3_2_0 :J3_7_0 :J3_8_0 :J3_9_0 :J3_10_0"/>
    <junction id=":J3_14_0" type="internal" x="-199.04" y="396.80" incLanes=":J3_8_0 -E9_0" intLanes=":J3_0_0 :J3_1_0 :J3_4_0 :J3_5_0 :J3_10_0 :J3_11_0"/>
    <junction id=":J3_15_0" type="internal" x="-203.20" y="399.04" incLanes=":J3_11_0 -E3_0" intLanes=":J3_1_0 :J3_2_0 :J3_3_0 :J3_4_0 :J3_7_0 :J3_8_0"/>
    <junction id=":J6_12_0" type="internal" x="-499.43" y="403.26" incLanes=":J6_2_0 -E6_0" intLanes=":J6_4_0 :J6_5_0 :J6_6_0 :J6_7_0 :J6_10_0 :J6_11_0"/>
    <junction id=":J6_13_0" type="internal" x="-494.24" y="400.93" incLanes=":J6_5_0 -E7_0" intLanes=":J6_1_0 :J6_2_0 :J6_7_0 :J6_8_0 :J6_9_0 :J6_10_0"/>
    <junction id=":J6_14_0" type="internal" x="-495.04" y="396.40" incLanes=":J6_8_0 -E8_0" intLanes=":J6_0_0 :J6_1_0 :J6_4_0 :J6_5_0 :J6_10_0 :J6_11_0"/>
    <junction id=":J6_15_0" type="internal" x="-503.20" y="399.04" incLanes=":J6_11_0 E5_0" intLanes=":J6_1_0 :J6_2_0 :J6_3_0 :J6_4_0 :J6_7_0 :J6_8_0"/>

    <connection from="-E0" to="-E8" fromLane="0" toLane="0" via=":J9_0_0" dir="l" state="M"/>
    <connection from="-E1" to="-E6" fromLane="0" toLane="0" via=":J7_0_0" dir="s" state="M"/>
    <connection from="-E3" to="E9" fromLane="0" toLane="0" via=":J3_3_0" tl="J3" linkIndex="3" dir="r" state="o"/>
    <connection from="-E3" to="E5" fromLane="0" toLane="0" via=":J3_4_0" tl="J3" linkIndex="4" dir="s" state="o"/>
    <connection from="-E3" to="E4" fromLane="0" toLane="0" via=":J3_5_0" tl="J3" linkIndex="5" dir="l" state="o"/>
    <connection from="-E4" to="E3" fromLane="0" toLane="0" via=":J3_6_0" tl="J3" linkIndex="6" dir="r" state="O"/>
    <connection from="-E4" to="E9" fromLane="0" toLane="0" via=":J3_7_0" tl="J3" linkIndex="7" dir="s" state="O"/>
    <connection from="-E4" to="E5" fromLane="0" toLane="0" via=":J3_8_0" tl="J3" linkIndex="8" dir="l" state="o"/>
    <connection from="-E5" to="E4" fromLane="0" toLane="0" via=":J3_9_0" tl="J3" linkIndex="9" dir="r" state="o"/>
    <connection from="-E5" to="E3" fromLane="0" toLane="0" via=":J3_10_0" tl="J3" linkIndex="10" dir="s" state="o"/>
    <connection from="-E5" to="E9" fromLane="0" toLane="0" via=":J3_11_0" tl="J3" linkIndex="11" dir="l" state="o"/>
    <connection from="-E6" to="-E5" fromLane="0" toLane="0" via=":J6_6_0" tl="J6" linkIndex="6" dir="r" state="o"/>
    <connection from="-E6" to="E8" fromLane="0" toLane="0" via=":J6_7_0" tl="J6" linkIndex="7" dir="R" state="o"/>
    <connection from="-E6" to="E7" fromLane="0" toLane="0" via=":J6_8_0" tl="J6" linkIndex="8" dir="l" state="o"/>
    <connection from="-E7" to="E6" fromLane="0" toLane="0" via=":J6_9_0" tl="J6" linkIndex="9" dir="r" state="O"/>
    <connection from="-E7" to="-E5" fromLane="0" toLane="0" via=":J6_10_0" tl="J6" linkIndex="10" dir="s" state="O"/>
    <connection from="-E7" to="E8" fromLane="0" toLane="0" via=":J6_11_0" tl="J6" linkIndex="11" dir="l" state="o"/>
    <connection from="-E8" to="E7" fromLane="0" toLane="0" via=":J6_0_0" tl="J6" linkIndex="0" dir="r" state="o"/>
    <connection from="-E8" to="E6" fromLane="0" toLane="0" via=":J6_1_0" tl="J6" linkIndex="1" dir="L" state="o"/>
    <connection from="-E8" to="-E5" fromLane="0" toLane="0" via=":J6_2_0" tl="J6" linkIndex="2" dir="l" state="o"/>
    <connection from="-E9" to="E5" fromLane="0" toLane="0" via=":J3_0_0" tl="J3" linkIndex="0" dir="r" state="O"/>
    <connection from="-E9" to="E4" fromLane="0" toLane="0" via=":J3_1_0" tl="J3" linkIndex="1" dir="s" state="O"/>
    <connection from="-E9" to="E3" fromLane="0" toLane="0" via=":J3_2_0" tl="J3" linkIndex="2" dir="l" state="o"/>
    <connection from="E0" to="-E9" fromLane="0" toLane="0" via=":J10_1_0" dir="r" state="M"/>
    <connection from="E1" to="-E4" fromLane="0" toLane="0" via=":J5_1_0" dir="l" state="M"/>
    <connection from="E4" to="-E1" fromLane="0" toLane="0" via=":J5_0_0" dir="r" state="M"/>
    <connection from="E5" to="E8" fromLane="0" toLane="0" via=":J6_3_0" tl="J6" linkIndex="3" dir="r" state="O"/>
    <connection from="E5" to="E7" fromLane="0" toLane="0" via=":J6_4_0" tl="J6" linkIndex="4" dir="s" state="O"/>
    <connection from="E5" to="E6" fromLane="0" toLane="0" via=":J6_5_0" tl="J6" linkIndex="5" dir="l" state="o"/>
    <connection from="E6" to="E1" fromLane="0" toLane="0" via=":J7_1_0" dir="s" state="M"/>
    <connection from="E8" to="E0" fromLane="0" toLane="0" via=":J9_1_0" dir="r" state="M"/>
    <connection from="E9" to="-E0" fromLane="0" toLane="0" via=":J10_0_0" dir="l" state="M"/>

    <connection from=":J10_0" to="-E0" fromLane="0" toLane="0" dir="l" state="M"/>
    <connection from=":J10_1" to="-E9" fromLane="0" toLane="0" dir="r" state="M"/>
    <connection from=":J3_0" to="E5" fromLane="0" toLane="0" dir="r" state="M"/>
    <connection from=":J3_1" to="E4" fromLane="0" toLane="0" dir="s" state="M"/>
    <connection from=":J3_2" to="E3" fromLane="0" toLane="0" via=":J3_12_0" dir="l" state="m"/>
    <connection from=":J3_12" to="E3" fromLane="0" toLane="0" dir="l" state="M"/>
    <connection from=":J3_3" to="E9" fromLane="0" toLane="0" dir="r" state="M"/>
    <connection from=":J3_4" to="E5" fromLane="0" toLane="0" dir="s" state="M"/>
    <connection from=":J3_5" to="E4" fromLane="0" toLane="0" via=":J3_13_0" dir="l" state="m"/>
    <connection from=":J3_13" to="E4" fromLane="0" toLane="0" dir="l" state="M"/>
    <connection from=":J3_6" to="E3" fromLane="0" toLane="0" dir="r" state="M"/>
    <connection from=":J3_7" to="E9" fromLane="0" toLane="0" dir="s" state="M"/>
    <connection from=":J3_8" to="E5" fromLane="0" toLane="0" via=":J3_14_0" dir="l" state="m"/>
    <connection from=":J3_14" to="E5" fromLane="0" toLane="0" dir="l" state="M"/>
    <connection from=":J3_9" to="E4" fromLane="0" toLane="0" dir="r" state="M"/>
    <connection from=":J3_10" to="E3" fromLane="0" toLane="0" dir="s" state="M"/>
    <connection from=":J3_11" to="E9" fromLane="0" toLane="0" via=":J3_15_0" dir="l" state="m"/>
    <connection from=":J3_15" to="E9" fromLane="0" toLane="0" dir="l" state="M"/>
    <connection from=":J5_0" to="-E1" fromLane="0" toLane="0" dir="r" state="M"/>
    <connection from=":J5_1" to="-E4" fromLane="0" toLane="0" dir="l" state="M"/>
    <connection from=":J6_0" to="E7" fromLane="0" toLane="0" dir="r" state="M"/>
    <connection from=":J6_1" to="E6" fromLane="0" toLane="0" dir="L" state="M"/>
    <connection from=":J6_2" to="-E5" fromLane="0" toLane="0" via=":J6_12_0" dir="l" state="m"/>
    <connection from=":J6_12" to="-E5" fromLane="0" toLane="0" dir="l" state="M"/>
    <connection from=":J6_3" to="E8" fromLane="0" toLane="0" dir="r" state="M"/>
    <connection from=":J6_4" to="E7" fromLane="0" toLane="0" dir="s" state="M"/>
    <connection from=":J6_5" to="E6" fromLane="0" toLane="0" via=":J6_13_0" dir="l" state="m"/>
    <connection from=":J6_13" to="E6" fromLane="0" toLane="0" dir="l" state="M"/>
    <connection from=":J6_6" to="-E5" fromLane="0" toLane="0" dir="r" state="M"/>
    <connection from=":J6_7" to="E8" fromLane="0" toLane="0" dir="R" state="M"/>
    <connection from=":J6_8" to="E7" fromLane="0" toLane="0" via=":J6_14_0" dir="l" state="m"/>
    <connection from=":J6_14" to="E7" fromLane="0" toLane="0" dir="l" state="M"/>
    <connection from=":J6_9" to="E6" fromLane="0" toLane="0" dir="r" state="M"/>
    <connection from=":J6_10" to="-E5" fromLane="0" toLane="0" dir="s" state="M"/>
    <connection from=":J6_11" to="E8" fromLane="0" toLane="0" via=":J6_15_0" dir="l" state="m"/>
    <connection from=":J6_15" to="E8" fromLane="0" toLane="0" dir="l" state="M"/>
    <connection from=":J7_0" to="-E6" fromLane="0" toLane="0" dir="s" state="M"/>
    <connection from=":J7_1" to="E1" fromLane="0" toLane="0" dir="s" state="M"/>
    <connection from=":J9_0" to="-E8" fromLane="0" toLane="0" dir="l" state="M"/>
    <connection from=":J9_1" to="E0" fromLane="0" toLane="0" dir="r" state="M"/>

</net>
