<?xml version="1.0" encoding="UTF-8"?>

<!-- generated on 2025-03-14 02:47:22 by Eclipse SUMO netconvert Version 1.12.0
<configuration xmlns:xsi="http://www.w3.org/2001/XMLSchema-instance" xsi:noNamespaceSchemaLocation="http://sumo.dlr.de/xsd/netconvertConfiguration.xsd">

    <input>
        <osm-files value="king_circle.osm"/>
    </input>

    <output>
        <output-file value="king_circle.net.xml"/>
    </output>

    <projection>
        <proj.utm value="true"/>
    </projection>

    <report>
        <aggregate-warnings value="5"/>
    </report>

</configuration>
-->

<net version="1.9" junctionCornerDetail="5" limitTurnSpeed="5.50" xmlns:xsi="http://www.w3.org/2001/XMLSchema-instance" xsi:noNamespaceSchemaLocation="http://sumo.dlr.de/xsd/net_file.xsd">

    <location netOffset="-273684.97,-2104417.38" convBoundary="0.00,0.00,864.74,1510.71" origBoundary="72.849871,19.019991,72.857955,19.033635" projParameter="+proj=utm +zone=43 +ellps=WGS84 +datum=WGS84 +units=m +no_defs"/>

    <type id="highway.bridleway" priority="1" numLanes="1" speed="2.78" allow="pedestrian" oneway="1" width="2.00"/>
    <type id="highway.bus_guideway" priority="1" numLanes="1" speed="27.78" allow="bus" oneway="1"/>
    <type id="highway.cycleway" priority="1" numLanes="1" speed="8.33" allow="bicycle" oneway="0" width="1.00"/>
    <type id="highway.footway" priority="1" numLanes="1" speed="2.78" allow="pedestrian" oneway="1" width="2.00"/>
    <type id="highway.ford" priority="1" numLanes="1" speed="2.78" allow="army" oneway="0"/>
    <type id="highway.living_street" priority="2" numLanes="1" speed="2.78" disallow="tram rail_urban rail rail_electric rail_fast ship" oneway="0"/>
    <type id="highway.motorway" priority="14" numLanes="2" speed="39.44" allow="private emergency authority army vip passenger hov taxi bus coach delivery truck trailer motorcycle evehicle custom1 custom2" oneway="1"/>
    <type id="highway.motorway_link" priority="9" numLanes="1" speed="22.22" allow="private emergency authority army vip passenger hov taxi bus coach delivery truck trailer motorcycle evehicle custom1 custom2" oneway="1"/>
    <type id="highway.path" priority="1" numLanes="1" speed="2.78" allow="pedestrian bicycle" oneway="0" width="2.00"/>
    <type id="highway.pedestrian" priority="1" numLanes="1" speed="2.78" allow="pedestrian" oneway="1" width="2.00"/>
    <type id="highway.primary" priority="12" numLanes="2" speed="27.78" disallow="tram rail_urban rail rail_electric rail_fast ship" oneway="0"/>
    <type id="highway.primary_link" priority="7" numLanes="1" speed="22.22" disallow="tram rail_urban rail rail_electric rail_fast ship" oneway="0"/>
    <type id="highway.raceway" priority="15" numLanes="2" speed="83.33" allow="vip" oneway="0"/>
    <type id="highway.residential" priority="3" numLanes="1" speed="13.89" disallow="tram rail_urban rail rail_electric rail_fast ship" oneway="0"/>
    <type id="highway.secondary" priority="11" numLanes="1" speed="27.78" disallow="tram rail_urban rail rail_electric rail_fast ship" oneway="0"/>
    <type id="highway.secondary_link" priority="6" numLanes="1" speed="22.22" disallow="tram rail_urban rail rail_electric rail_fast ship" oneway="0"/>
    <type id="highway.service" priority="1" numLanes="1" speed="5.56" allow="pedestrian delivery bicycle" oneway="0"/>
    <type id="highway.stairs" priority="1" numLanes="1" speed="1.39" allow="pedestrian" oneway="1" width="2.00"/>
    <type id="highway.step" priority="1" numLanes="1" speed="1.39" allow="pedestrian" oneway="1" width="2.00"/>
    <type id="highway.steps" priority="1" numLanes="1" speed="1.39" allow="pedestrian" oneway="1" width="2.00"/>
    <type id="highway.tertiary" priority="10" numLanes="1" speed="22.22" disallow="tram rail_urban rail rail_electric rail_fast ship" oneway="0"/>
    <type id="highway.tertiary_link" priority="5" numLanes="1" speed="22.22" disallow="tram rail_urban rail rail_electric rail_fast ship" oneway="0"/>
    <type id="highway.track" priority="1" numLanes="1" speed="5.56" allow="pedestrian motorcycle moped bicycle" oneway="0"/>
    <type id="highway.trunk" priority="13" numLanes="2" speed="27.78" disallow="pedestrian bicycle tram rail_urban rail rail_electric rail_fast ship" oneway="0"/>
    <type id="highway.trunk_link" priority="8" numLanes="1" speed="22.22" disallow="pedestrian bicycle tram rail_urban rail rail_electric rail_fast ship" oneway="0"/>
    <type id="highway.unclassified" priority="4" numLanes="1" speed="13.89" disallow="tram rail_urban rail rail_electric rail_fast ship" oneway="0"/>
    <type id="highway.unsurfaced" priority="1" numLanes="1" speed="8.33" disallow="tram rail_urban rail rail_electric rail_fast ship" oneway="0"/>
    <type id="railway.highspeed" priority="21" numLanes="1" speed="69.44" allow="rail_fast" oneway="1"/>
    <type id="railway.light_rail" priority="19" numLanes="1" speed="27.78" allow="rail_urban" oneway="1"/>
    <type id="railway.preserved" priority="16" numLanes="1" speed="27.78" allow="rail" oneway="1"/>
    <type id="railway.rail" priority="20" numLanes="1" speed="44.44" allow="rail" oneway="1"/>
    <type id="railway.subway" priority="18" numLanes="1" speed="27.78" allow="rail_urban" oneway="1"/>
    <type id="railway.tram" priority="17" numLanes="1" speed="13.89" allow="tram" oneway="1"/>

    <edge id=":10945563131_0" function="internal">
        <lane id=":10945563131_0_0" index="0" allow="pedestrian delivery bicycle" speed="3.65" length="4.67" shape="389.53,646.72 389.29,645.30 389.60,644.46 390.46,644.21 391.86,644.53"/>
    </edge>
    <edge id=":11029923731_0" function="internal">
        <lane id=":11029923731_0_0" index="0" allow="pedestrian delivery bicycle" speed="5.30" length="4.70" shape="414.78,663.89 413.22,662.90 412.00,662.29 411.12,662.07 410.57,662.23"/>
    </edge>
    <edge id=":11029923731_1" function="internal">
        <lane id=":11029923731_1_0" index="0" allow="pedestrian delivery bicycle" speed="6.72" length="11.30" shape="414.78,663.89 412.43,661.72 411.53,659.44 412.08,657.06 414.08,654.56"/>
    </edge>
    <edge id=":11029923731_2" function="internal">
        <lane id=":11029923731_2_0" index="0" allow="pedestrian delivery bicycle" speed="3.65" length="4.67" shape="414.78,663.89 414.25,662.56 414.37,661.67 415.15,661.24 416.59,661.26"/>
    </edge>
    <edge id=":11029923731_3" function="internal">
        <lane id=":11029923731_3_0" index="0" allow="pedestrian delivery bicycle" speed="4.84" length="5.28" shape="416.26,656.89 415.33,658.06 415.07,659.18 415.49,660.24 416.59,661.26"/>
    </edge>
    <edge id=":11029923731_4" function="internal">
        <lane id=":11029923731_4_0" index="0" disallow="tram rail_urban rail rail_electric rail_fast ship" speed="13.89" length="7.80" shape="416.26,656.89 410.57,662.23"/>
    </edge>
    <edge id=":11029923731_5" function="internal">
        <lane id=":11029923731_5_0" index="0" disallow="tram rail_urban rail rail_electric rail_fast ship" speed="13.89" length="7.80" shape="408.38,659.89 414.08,654.56"/>
    </edge>
    <edge id=":11029923731_6" function="internal">
        <lane id=":11029923731_6_0" index="0" allow="pedestrian delivery bicycle" speed="7.03" length="2.05" shape="408.38,659.89 409.88,659.05 410.22,659.04"/>
    </edge>
    <edge id=":11029923731_7" function="internal">
        <lane id=":11029923731_7_0" index="0" allow="pedestrian delivery bicycle" speed="7.03" length="6.91" shape="410.22,659.04 411.75,659.00 413.99,659.73 416.59,661.26"/>
    </edge>
    <edge id=":11029923732_0" function="internal">
        <lane id=":11029923732_0_0" index="0" allow="pedestrian delivery bicycle" speed="3.65" length="4.67" shape="427.45,668.72 427.99,670.06 427.87,670.94 427.08,671.38 425.64,671.36"/>
    </edge>
    <edge id=":11029940637_0" function="internal">
        <lane id=":11029940637_0_0" index="0" disallow="tram rail_urban rail rail_electric rail_fast ship" speed="13.89" length="14.41" shape="473.17,901.23 463.96,912.31"/>
    </edge>
    <edge id=":11029940637_1" function="internal">
        <lane id=":11029940637_1_0" index="0" disallow="tram rail_urban rail rail_electric rail_fast ship" speed="8.16" length="3.99" shape="473.17,901.23 470.32,903.78 470.16,903.83"/>
    </edge>
    <edge id=":11029940637_2" function="internal">
        <lane id=":11029940637_2_0" index="0" disallow="tram rail_urban rail rail_electric rail_fast ship" speed="3.65" length="1.44" shape="473.17,901.23 471.78,901.64"/>
    </edge>
    <edge id=":11029940637_9" function="internal">
        <lane id=":11029940637_9_0" index="0" disallow="tram rail_urban rail rail_electric rail_fast ship" speed="8.16" length="10.27" shape="470.16,903.83 467.28,904.84 464.04,904.41 460.59,902.48"/>
    </edge>
    <edge id=":11029940637_10" function="internal">
        <lane id=":11029940637_10_0" index="0" disallow="tram rail_urban rail rail_electric rail_fast ship" speed="3.65" length="3.23" shape="471.78,901.64 470.91,901.43 470.55,900.62 470.70,899.18"/>
    </edge>
    <edge id=":11029940637_3" function="internal">
        <lane id=":11029940637_3_0" index="0" disallow="tram rail_urban rail rail_electric rail_fast ship" speed="6.70" length="9.28" shape="462.51,899.93 464.77,901.19 466.89,901.49 468.87,900.82 470.70,899.18"/>
    </edge>
    <edge id=":11029940637_4" function="internal">
        <lane id=":11029940637_4_0" index="0" disallow="tram rail_urban rail rail_electric rail_fast ship" speed="7.92" length="14.38" shape="462.51,899.93 465.31,902.74 466.49,905.74 466.04,908.93 463.96,912.31"/>
    </edge>
    <edge id=":11029940637_5" function="internal">
        <lane id=":11029940637_5_0" index="0" disallow="tram rail_urban rail rail_electric rail_fast ship" speed="3.65" length="4.67" shape="462.51,899.93 462.99,901.29 462.83,902.17 462.03,902.57 460.59,902.48"/>
    </edge>
    <edge id=":11029940637_6" function="internal">
        <lane id=":11029940637_6_0" index="0" disallow="tram rail_urban rail rail_electric rail_fast ship" speed="6.41" length="9.04" shape="461.50,910.27 462.80,908.14 463.09,906.14 462.35,904.25 460.59,902.48"/>
    </edge>
    <edge id=":11029940637_7" function="internal">
        <lane id=":11029940637_7_0" index="0" disallow="tram rail_urban rail rail_electric rail_fast ship" speed="13.89" length="14.41" shape="461.50,910.27 470.70,899.18"/>
    </edge>
    <edge id=":11029940637_8" function="internal">
        <lane id=":11029940637_8_0" index="0" disallow="tram rail_urban rail rail_electric rail_fast ship" speed="3.65" length="1.44" shape="461.50,910.27 462.88,909.85"/>
    </edge>
    <edge id=":11029940637_11" function="internal">
        <lane id=":11029940637_11_0" index="0" disallow="tram rail_urban rail rail_electric rail_fast ship" speed="3.65" length="3.23" shape="462.88,909.85 463.75,910.06 464.11,910.88 463.96,912.31"/>
    </edge>
    <edge id=":11029940641_0" function="internal">
        <lane id=":11029940641_0_0" index="0" disallow="tram rail_urban rail rail_electric rail_fast ship" speed="13.89" length="14.41" shape="357.75,937.19 352.12,923.93"/>
    </edge>
    <edge id=":11029940641_1" function="internal">
        <lane id=":11029940641_1_0" index="0" disallow="tram rail_urban rail rail_electric rail_fast ship" speed="8.23" length="3.96" shape="357.75,937.19 356.80,933.53 356.82,933.36"/>
    </edge>
    <edge id=":11029940641_2" function="internal">
        <lane id=":11029940641_2_0" index="0" disallow="tram rail_urban rail rail_electric rail_fast ship" speed="3.65" length="1.44" shape="357.75,937.19 358.02,935.78"/>
    </edge>
    <edge id=":11029940641_9" function="internal">
        <lane id=":11029940641_9_0" index="0" disallow="tram rail_urban rail rail_electric rail_fast ship" speed="8.23" length="10.34" shape="356.82,933.36 357.26,930.33 359.12,927.60 362.39,925.35"/>
    </edge>
    <edge id=":11029940641_10" function="internal">
        <lane id=":11029940641_10_0" index="0" disallow="tram rail_urban rail rail_electric rail_fast ship" speed="3.65" length="3.23" shape="358.02,935.78 358.60,935.10 359.49,935.15 360.70,935.94"/>
    </edge>
    <edge id=":11029940641_3" function="internal">
        <lane id=":11029940641_3_0" index="0" disallow="tram rail_urban rail rail_electric rail_fast ship" speed="6.78" length="9.39" shape="363.84,928.20 361.66,929.69 360.41,931.48 360.09,933.56 360.70,935.94"/>
    </edge>
    <edge id=":11029940641_4" function="internal">
        <lane id=":11029940641_4_0" index="0" disallow="tram rail_urban rail rail_electric rail_fast ship" speed="7.88" length="14.46" shape="363.84,928.20 360.05,929.48 356.84,929.20 354.19,927.35 352.12,923.93"/>
    </edge>
    <edge id=":11029940641_5" function="internal">
        <lane id=":11029940641_5_0" index="0" disallow="tram rail_urban rail rail_electric rail_fast ship" speed="3.65" length="4.67" shape="363.84,928.20 362.41,928.03 361.69,927.50 361.68,926.60 362.39,925.35"/>
    </edge>
    <edge id=":11029940641_6" function="internal">
        <lane id=":11029940641_6_0" index="0" disallow="tram rail_urban rail rail_electric rail_fast ship" speed="6.36" length="9.04" shape="355.06,922.68 356.36,924.81 358.01,925.97 360.02,926.15 362.39,925.35"/>
    </edge>
    <edge id=":11029940641_7" function="internal">
        <lane id=":11029940641_7_0" index="0" disallow="tram rail_urban rail rail_electric rail_fast ship" speed="13.89" length="14.41" shape="355.06,922.68 360.70,935.94"/>
    </edge>
    <edge id=":11029940641_8" function="internal">
        <lane id=":11029940641_8_0" index="0" disallow="tram rail_urban rail rail_electric rail_fast ship" speed="3.65" length="1.44" shape="355.06,922.68 354.80,924.09"/>
    </edge>
    <edge id=":11029940641_11" function="internal">
        <lane id=":11029940641_11_0" index="0" disallow="tram rail_urban rail rail_electric rail_fast ship" speed="3.65" length="3.23" shape="354.80,924.09 354.22,924.77 353.32,924.72 352.12,923.93"/>
    </edge>
    <edge id=":11029951266_0" function="internal">
        <lane id=":11029951266_0_0" index="0" disallow="pedestrian bicycle tram rail_urban rail rail_electric rail_fast ship" speed="27.78" length="9.40" shape="682.46,880.72 688.75,887.70"/>
        <lane id=":11029951266_0_1" index="1" disallow="pedestrian bicycle tram rail_urban rail rail_electric rail_fast ship" speed="27.78" length="9.40" shape="680.08,882.86 686.37,889.84"/>
        <lane id=":11029951266_0_2" index="2" disallow="pedestrian bicycle tram rail_urban rail rail_electric rail_fast ship" speed="27.78" length="9.40" shape="677.70,885.00 684.00,891.98"/>
    </edge>
    <edge id=":11029951266_3" function="internal">
        <lane id=":11029951266_3_0" index="0" allow="delivery" speed="6.10" length="7.77" shape="677.70,885.00 679.40,887.18 680.29,889.03 680.36,890.56 679.62,891.78"/>
    </edge>
    <edge id=":11029951266_4" function="internal">
        <lane id=":11029951266_4_0" index="0" allow="delivery" speed="6.85" length="10.20" shape="677.46,889.42 679.76,887.84 682.02,887.38 684.22,888.05 686.37,889.84"/>
        <lane id=":11029951266_4_1" index="1" allow="delivery" speed="6.07" length="7.78" shape="677.46,889.42 678.73,888.78 680.25,889.00 682.00,890.06 684.00,891.98"/>
    </edge>
    <edge id=":11029951266_6" function="internal">
        <lane id=":11029951266_6_0" index="0" allow="pedestrian delivery bicycle" speed="3.65" length="4.67" shape="677.46,889.42 678.88,889.20 679.72,889.51 679.96,890.37 679.62,891.78"/>
    </edge>
    <edge id=":11029951267_0" function="internal">
        <lane id=":11029951267_0_0" index="0" allow="pedestrian delivery bicycle" speed="3.65" length="4.67" shape="664.59,905.57 663.16,905.80 662.33,905.48 662.08,904.62 662.42,903.22"/>
    </edge>
    <edge id=":11235667112_0" function="internal">
        <lane id=":11235667112_0_0" index="0" disallow="tram rail_urban rail rail_electric rail_fast ship" speed="13.89" length="10.23" shape="526.04,509.97 523.85,499.98"/>
    </edge>
    <edge id=":11235667112_1" function="internal">
        <lane id=":11235667112_1_0" index="0" disallow="tram rail_urban rail rail_electric rail_fast ship" speed="3.65" length="1.44" shape="526.04,509.97 526.56,508.63"/>
    </edge>
    <edge id=":11235667112_6" function="internal">
        <lane id=":11235667112_6_0" index="0" disallow="tram rail_urban rail rail_electric rail_fast ship" speed="3.65" length="3.23" shape="526.56,508.63 527.26,508.07 528.13,508.29 529.17,509.29"/>
    </edge>
    <edge id=":11235667112_2" function="internal">
        <lane id=":11235667112_2_0" index="0" disallow="tram rail_urban rail rail_electric rail_fast ship" speed="6.29" length="8.29" shape="533.59,503.47 531.28,504.31 529.77,505.56 529.07,507.22 529.17,509.29"/>
    </edge>
    <edge id=":11235667112_3" function="internal">
        <lane id=":11235667112_3_0" index="0" disallow="tram rail_urban rail rail_electric rail_fast ship" speed="7.28" length="11.67" shape="533.59,503.47 529.78,504.00 526.88,503.59 524.91,502.25 523.85,499.98"/>
    </edge>
    <edge id=":11235667112_4" function="internal">
        <lane id=":11235667112_4_0" index="0" disallow="tram rail_urban rail rail_electric rail_fast ship" speed="13.89" length="10.23" shape="526.97,499.29 529.17,509.29"/>
    </edge>
    <edge id=":11235667112_5" function="internal">
        <lane id=":11235667112_5_0" index="0" disallow="tram rail_urban rail rail_electric rail_fast ship" speed="3.65" length="1.44" shape="526.97,499.29 526.45,500.64"/>
    </edge>
    <edge id=":11235667112_7" function="internal">
        <lane id=":11235667112_7_0" index="0" disallow="tram rail_urban rail rail_electric rail_fast ship" speed="3.65" length="3.23" shape="526.45,500.64 525.75,501.20 524.88,500.98 523.85,499.98"/>
    </edge>
    <edge id=":11235667113_0" function="internal">
        <lane id=":11235667113_0_0" index="0" allow="pedestrian delivery bicycle" speed="5.49" length="5.14" shape="516.49,513.42 515.34,512.86 514.17,512.78 513.01,513.17 511.84,514.04"/>
    </edge>
    <edge id=":11235667113_1" function="internal">
        <lane id=":11235667113_1_0" index="0" disallow="tram rail_urban rail rail_electric rail_fast ship" speed="8.33" length="8.98" shape="516.49,513.42 514.32,511.89 512.92,510.72 511.68,509.37 510.01,507.30"/>
    </edge>
    <edge id=":11235667113_2" function="internal">
        <lane id=":11235667113_2_0" index="0" disallow="tram rail_urban rail rail_electric rail_fast ship" speed="8.33" length="8.04" shape="512.51,505.30 514.00,507.15 515.11,508.36 516.36,509.41 518.31,510.78"/>
    </edge>
    <edge id=":11235667113_3" function="internal">
        <lane id=":11235667113_3_0" index="0" allow="pedestrian delivery bicycle" speed="6.95" length="3.13" shape="512.51,505.30 513.85,507.58 513.92,508.05"/>
    </edge>
    <edge id=":11235667113_7" function="internal">
        <lane id=":11235667113_7_0" index="0" allow="pedestrian delivery bicycle" speed="6.95" length="6.70" shape="513.92,508.05 514.19,509.79 513.52,511.95 511.84,514.04"/>
    </edge>
    <edge id=":11235667113_4" function="internal">
        <lane id=":11235667113_4_0" index="0" allow="pedestrian delivery bicycle" speed="5.14" length="4.92" shape="509.68,511.67 510.52,510.63 510.85,509.55 510.68,508.44 510.01,507.30"/>
    </edge>
    <edge id=":11235667113_5" function="internal">
        <lane id=":11235667113_5_0" index="0" allow="pedestrian delivery bicycle" speed="6.95" length="9.49" shape="509.68,511.67 511.79,510.14 513.93,509.48 516.10,509.69 518.31,510.78"/>
    </edge>
    <edge id=":11235667113_6" function="internal">
        <lane id=":11235667113_6_0" index="0" allow="pedestrian delivery bicycle" speed="3.65" length="4.67" shape="509.68,511.67 511.10,511.45 511.94,511.77 512.18,512.63 511.84,514.04"/>
    </edge>
    <edge id=":11273683154_0" function="internal">
        <lane id=":11273683154_0_0" index="0" allow="pedestrian delivery bicycle" speed="3.65" length="4.67" shape="473.14,538.82 473.49,540.22 473.25,541.08 472.41,541.41 470.99,541.19"/>
    </edge>
    <edge id=":11273683155_0" function="internal">
        <lane id=":11273683155_0_0" index="0" allow="pedestrian delivery bicycle" speed="3.65" length="4.67" shape="481.07,543.00 479.65,543.24 478.81,542.94 478.55,542.08 478.88,540.67"/>
    </edge>
    <edge id=":1165504242_0" function="internal">
        <lane id=":1165504242_0_0" index="0" disallow="pedestrian bicycle tram rail_urban rail rail_electric rail_fast ship" speed="27.78" length="9.27" shape="345.86,487.53 339.46,480.95"/>
        <lane id=":1165504242_0_1" index="1" disallow="pedestrian bicycle tram rail_urban rail rail_electric rail_fast ship" speed="27.78" length="9.27" shape="348.19,485.33 341.72,478.69"/>
        <lane id=":1165504242_0_2" index="2" disallow="pedestrian bicycle tram rail_urban rail rail_electric rail_fast ship" speed="27.78" length="9.27" shape="350.51,483.13 343.98,476.42"/>
    </edge>
    <edge id=":1165504242_3" function="internal">
        <lane id=":1165504242_3_0" index="0" disallow="pedestrian bicycle tram rail_urban rail rail_electric rail_fast ship" speed="6.08" length="7.76" shape="350.51,483.13 348.75,480.99 347.82,479.16 347.71,477.64 348.43,476.42"/>
    </edge>
    <edge id=":1165504242_4" function="internal">
        <lane id=":1165504242_4_0" index="0" disallow="pedestrian bicycle tram rail_urban rail rail_electric rail_fast ship" speed="6.91" length="10.10" shape="350.63,478.74 348.37,480.35 346.13,480.88 343.91,480.32 341.72,478.69"/>
        <lane id=":1165504242_4_1" index="1" disallow="pedestrian bicycle tram rail_urban rail rail_electric rail_fast ship" speed="6.13" length="7.74" shape="350.63,478.74 349.38,479.39 347.86,479.21 346.06,478.23 343.98,476.42"/>
    </edge>
    <edge id=":1165504242_6" function="internal">
        <lane id=":1165504242_6_0" index="0" disallow="tram rail_urban rail rail_electric rail_fast ship" speed="3.65" length="4.67" shape="350.63,478.74 349.21,478.99 348.37,478.68 348.11,477.83 348.43,476.42"/>
    </edge>
    <edge id=":1179090909_0" function="internal">
        <lane id=":1179090909_0_0" index="0" disallow="pedestrian bicycle tram rail_urban rail rail_electric rail_fast ship" speed="27.78" length="9.49" shape="279.33,413.77 273.04,406.59"/>
        <lane id=":1179090909_0_1" index="1" disallow="pedestrian bicycle tram rail_urban rail rail_electric rail_fast ship" speed="27.78" length="9.49" shape="281.72,411.64 275.46,404.50"/>
        <lane id=":1179090909_0_2" index="2" disallow="pedestrian bicycle tram rail_urban rail rail_electric rail_fast ship" speed="27.78" length="9.49" shape="284.10,409.51 277.88,402.41"/>
    </edge>
    <edge id=":1179090909_3" function="internal">
        <lane id=":1179090909_3_0" index="0" disallow="pedestrian bicycle tram rail_urban rail rail_electric rail_fast ship" speed="6.22" length="7.87" shape="284.10,409.51 282.43,407.33 281.57,405.46 281.51,403.88 282.27,402.60"/>
    </edge>
    <edge id=":1179090909_4" function="internal">
        <lane id=":1179090909_4_0" index="0" disallow="pedestrian bicycle tram rail_urban rail rail_electric rail_fast ship" speed="6.81" length="10.48" shape="284.50,404.89 282.16,406.60 279.88,407.10 277.64,406.40 275.46,404.50"/>
        <lane id=":1179090909_4_1" index="1" disallow="pedestrian bicycle tram rail_urban rail rail_electric rail_fast ship" speed="6.02" length="7.94" shape="284.50,404.89 283.18,405.62 281.63,405.46 279.87,404.39 277.88,402.41"/>
    </edge>
    <edge id=":1179090909_6" function="internal">
        <lane id=":1179090909_6_0" index="0" disallow="tram rail_urban rail rail_electric rail_fast ship" speed="3.65" length="4.67" shape="284.50,404.89 283.09,405.15 282.24,404.86 281.97,404.01 282.27,402.60"/>
    </edge>
    <edge id=":12432861243_0" function="internal">
        <lane id=":12432861243_0_0" index="0" disallow="tram rail_urban rail rail_electric rail_fast ship" speed="3.65" length="4.67" shape="288.01,365.91 287.90,364.47 288.28,363.66 289.16,363.49 290.53,363.94"/>
    </edge>
    <edge id=":12432922247_0" function="internal">
        <lane id=":12432922247_0_0" index="0" disallow="tram rail_urban rail rail_electric rail_fast ship" speed="3.65" length="4.67" shape="319.07,414.29 320.51,414.21 321.31,414.61 321.48,415.49 321.00,416.85"/>
    </edge>
    <edge id=":12432922249_0" function="internal">
        <lane id=":12432922249_0_0" index="0" disallow="tram rail_urban rail rail_electric rail_fast ship" speed="13.89" length="14.41" shape="317.52,419.48 305.95,428.08"/>
    </edge>
    <edge id=":12432922249_1" function="internal">
        <lane id=":12432922249_1_0" index="0" disallow="tram rail_urban rail rail_electric rail_fast ship" speed="8.31" length="3.97" shape="317.52,419.48 314.21,421.27 314.00,421.29"/>
    </edge>
    <edge id=":12432922249_2" function="internal">
        <lane id=":12432922249_2_0" index="0" disallow="tram rail_urban rail rail_electric rail_fast ship" speed="3.65" length="1.44" shape="317.52,419.48 316.08,419.56"/>
    </edge>
    <edge id=":12432922249_9" function="internal">
        <lane id=":12432922249_9_0" index="0" disallow="tram rail_urban rail rail_electric rail_fast ship" speed="8.31" length="10.37" shape="314.00,421.29 310.99,421.60 307.85,420.47 304.80,417.87"/>
    </edge>
    <edge id=":12432922249_10" function="internal">
        <lane id=":12432922249_10_0" index="0" disallow="tram rail_urban rail rail_electric rail_fast ship" speed="3.65" length="3.23" shape="316.08,419.56 315.28,419.16 315.11,418.28 315.59,416.92"/>
    </edge>
    <edge id=":12432922249_3" function="internal">
        <lane id=":12432922249_3_0" index="0" disallow="tram rail_urban rail rail_electric rail_fast ship" speed="6.87" length="9.51" shape="307.18,415.72 309.22,417.48 311.30,418.27 313.43,418.08 315.59,416.92"/>
    </edge>
    <edge id=":12432922249_4" function="internal">
        <lane id=":12432922249_4_0" index="0" disallow="tram rail_urban rail rail_electric rail_fast ship" speed="7.80" length="14.54" shape="307.18,415.72 309.45,419.10 310.00,422.28 308.84,425.28 305.95,428.08"/>
    </edge>
    <edge id=":12432922249_5" function="internal">
        <lane id=":12432922249_5_0" index="0" disallow="tram rail_urban rail rail_electric rail_fast ship" speed="3.65" length="4.67" shape="307.18,415.72 307.39,417.15 307.06,417.98 306.20,418.22 304.80,417.87"/>
    </edge>
    <edge id=":12432922249_6" function="internal">
        <lane id=":12432922249_6_0" index="0" disallow="tram rail_urban rail rail_electric rail_fast ship" speed="6.28" length="9.02" shape="304.02,425.53 305.82,423.79 306.54,421.93 306.21,419.96 304.80,417.87"/>
    </edge>
    <edge id=":12432922249_7" function="internal">
        <lane id=":12432922249_7_0" index="0" disallow="tram rail_urban rail rail_electric rail_fast ship" speed="13.89" length="14.42" shape="304.02,425.53 315.59,416.92"/>
    </edge>
    <edge id=":12432922249_8" function="internal">
        <lane id=":12432922249_8_0" index="0" disallow="tram rail_urban rail rail_electric rail_fast ship" speed="3.65" length="1.44" shape="304.02,425.53 305.46,425.44"/>
    </edge>
    <edge id=":12432922249_11" function="internal">
        <lane id=":12432922249_11_0" index="0" disallow="tram rail_urban rail rail_electric rail_fast ship" speed="3.65" length="3.23" shape="305.46,425.44 306.26,425.84 306.43,426.72 305.95,428.08"/>
    </edge>
    <edge id=":12432922250_0" function="internal">
        <lane id=":12432922250_0_0" index="0" disallow="tram rail_urban rail rail_electric rail_fast ship" speed="3.65" length="4.67" shape="295.58,407.65 295.37,406.22 295.70,405.39 296.56,405.15 297.96,405.51"/>
    </edge>
    <edge id=":1307553678_0" function="internal">
        <lane id=":1307553678_0_0" index="0" disallow="tram rail_urban rail rail_electric rail_fast ship" speed="3.65" length="4.67" shape="522.24,0.91 522.22,-0.54 522.65,-1.32 523.54,-1.44 524.88,-0.91"/>
    </edge>
    <edge id=":1650694511_0" function="internal">
        <lane id=":1650694511_0_0" index="0" disallow="pedestrian bicycle tram rail_urban rail rail_electric rail_fast ship" speed="27.78" length="24.34" shape="650.68,797.75 649.02,790.64 648.43,785.64 648.67,780.58 649.52,773.30"/>
        <lane id=":1650694511_0_1" index="1" disallow="pedestrian bicycle tram rail_urban rail rail_electric rail_fast ship" speed="27.78" length="24.34" shape="653.98,797.73 652.32,790.73 651.69,785.81 651.88,780.84 652.69,773.67"/>
        <lane id=":1650694511_0_2" index="2" disallow="pedestrian bicycle tram rail_urban rail rail_electric rail_fast ship" speed="27.78" length="24.34" shape="657.28,797.71 655.62,790.82 654.96,785.99 655.10,781.10 655.87,774.05"/>
    </edge>
    <edge id=":1650694511_3" function="internal">
        <lane id=":1650694511_3_0" index="0" disallow="pedestrian bicycle tram rail_urban rail rail_electric rail_fast ship" speed="22.45" length="24.48" shape="640.07,794.46 644.27,788.84 646.88,784.71 648.44,780.15 649.52,773.30"/>
        <lane id=":1650694511_3_1" index="1" disallow="pedestrian bicycle tram rail_urban rail rail_electric rail_fast ship" speed="22.83" length="24.48" shape="643.15,795.68 647.46,789.85 650.08,785.53 651.62,780.78 652.69,773.67"/>
        <lane id=":1650694511_3_2" index="2" disallow="pedestrian bicycle tram rail_urban rail rail_electric rail_fast ship" speed="23.22" length="24.48" shape="646.23,796.90 650.65,790.86 653.28,786.36 654.80,781.41 655.87,774.05"/>
    </edge>
    <edge id=":1650694545_0" function="internal">
        <lane id=":1650694545_0_0" index="0" disallow="pedestrian bicycle tram rail_urban rail rail_electric rail_fast ship" speed="20.72" length="20.30" shape="605.25,818.93 611.15,817.94 615.12,816.70 618.70,814.58 623.46,810.93"/>
        <lane id=":1650694545_0_1" index="1" disallow="pedestrian bicycle tram rail_urban rail rail_electric rail_fast ship" speed="20.89" length="20.64" shape="605.25,818.93 611.39,818.42 615.78,818.25 619.79,817.17 624.77,813.97"/>